$DATA1 SOURCE='HSPICE' VERSION='A-2008.03 32-BIT'
.TITLE '** digital electronic circuits - ca2'
 t_rise           t_fall           highest_freq     temper           alter#            
  6.608e-12        2.645e-11       3.024e+10        25.0000           1.0000         
